<?xml version="1.0" encoding="utf-8"?>

<ScrollView xmlns:android="http://schemas.android.com/apk/res/android"
    xmlns:app="http://schemas.android.com/apk/res-auto"
    android:id="@+id/ScrollView01"
    android:layout_width="match_parent"
    android:layout_height="match_parent"
    android:fillViewport="true"
    android:scrollbars="vertical">

    <RelativeLayout xmlns:android="http://schemas.android.com/apk/res/android"
        xmlns:tools="http://schemas.android.com/tools"
        android:layout_width="match_parent"
        android:layout_height="wrap_content"
        android:background="@drawable/gradient"
        tools:context="com.example.leon.login.StoreAdd">

        <android.support.v7.widget.Toolbar
            android:id="@+id/toolbar"
            app:title="Create Store"
            app:titleTextColor="@color/colorPrimary"
            android:layout_width="match_parent"
            android:layout_height="?attr/actionBarSize"
            android:background="#1F2D44"
            android:elevation="4dp">

            <net.steamcrafted.materialiconlib.MaterialIconView
                android:id="@+id/info"
                android:layout_marginEnd="10dp"
                android:layout_width="wrap_content"
                android:layout_height="match_parent"
                android:padding="10dp"
                android:layout_gravity="right"
                app:materialIcon="information"
                app:materialIconColor="@color/colorPrimary"
                app:materialIconSize="25dp"
                />

        </android.support.v7.widget.Toolbar>

        <ProgressBar
            android:id="@+id/progressBar"
            style="?android:attr/progressBarStyleHorizontal"
            android:layout_width="fill_parent"
            android:layout_height="wrap_content"
            android:layout_below="@+id/toolbar"
            android:backgroundTint="#1a09d6"
            android:indeterminate="true"
            android:indeterminateTint="@color/colorAccent"
            android:max="100" />

        <LinearLayout
            android:layout_width="match_parent"
            android:layout_height="wrap_content"
            android:orientation="vertical"
            android:paddingLeft="24dp"
            android:paddingRight="24dp"
            android:paddingTop="56dp"
            android:layout_centerVertical="true"
            android:layout_alignParentStart="true">

            <android.support.design.widget.TextInputLayout
                android:layout_width="match_parent"
                android:layout_height="wrap_content"
                android:layout_marginBottom="8dp"
                android:layout_marginTop="8dp">

                <EditText
                    android:id="@+id/email"
                    android:layout_width="match_parent"
                    android:layout_height="wrap_content"
                    android:hint="Email Address"
                    android:inputType="textEmailAddress" />
            </android.support.design.widget.TextInputLayout>

            <android.support.design.widget.TextInputLayout
                android:layout_width="match_parent"
                android:layout_height="wrap_content"
                android:layout_marginBottom="8dp"
                android:layout_marginTop="8dp">

                <EditText
                    android:id="@+id/street_address"
                    android:layout_width="match_parent"
                    android:layout_height="wrap_content"
                    android:hint="Street Address"
                    android:inputType="text" />
            </android.support.design.widget.TextInputLayout>

            <android.support.design.widget.TextInputLayout
                android:layout_width="match_parent"
                android:layout_height="wrap_content"
                android:layout_marginBottom="8dp"
                android:layout_marginTop="8dp">

                <EditText
                    android:id="@+id/city"
                    android:layout_width="match_parent"
                    android:layout_height="wrap_content"
                    android:hint="City"
                    android:inputType="text" />
            </android.support.design.widget.TextInputLayout>

            <android.support.design.widget.TextInputLayout
                android:layout_width="match_parent"
                android:layout_height="wrap_content"
                android:layout_marginBottom="8dp"
                android:layout_marginTop="8dp">

                <EditText
                    android:id="@+id/state"
                    android:layout_width="match_parent"
                    android:layout_height="wrap_content"
                    android:hint="State"
                    android:inputType="text" />
            </android.support.design.widget.TextInputLayout>

            <android.support.design.widget.TextInputLayout
                android:layout_width="match_parent"
                android:layout_height="wrap_content"
                android:layout_marginBottom="8dp"
                android:layout_marginTop="8dp">

                <EditText
                    android:id="@+id/zip_code"
                    android:layout_width="match_parent"
                    android:layout_height="wrap_content"
                    android:hint="Zip Code"
                    android:inputType="number" />
            </android.support.design.widget.TextInputLayout>

            <android.support.design.widget.TextInputLayout
                android:layout_width="match_parent"
                android:layout_height="wrap_content"
                android:layout_marginBottom="8dp"
                android:layout_marginTop="8dp">

                <EditText
                    android:id="@+id/phone"
                    android:layout_width="match_parent"
                    android:layout_height="wrap_content"
                    android:hint="Main Business Phone"
                    android:inputType="phone" />
            </android.support.design.widget.TextInputLayout>


            <Button
                android:id="@+id/buttonSubmit"
                android:layout_width="match_parent"
                android:layout_height="wrap_content"
                android:background="@drawable/shape"
                android:text="Register" />

        </LinearLayout>
    </RelativeLayout>
</ScrollView>