<?xml version="1.0" encoding="utf-8"?>
<ScrollView xmlns:android="http://schemas.android.com/apk/res/android"
    xmlns:app="http://schemas.android.com/apk/res-auto"
    android:id="@+id/ScrollView01"
    android:layout_width="match_parent"
    android:layout_height="match_parent"
    android:fillViewport="true"
    android:scrollbars="vertical">

    <RelativeLayout xmlns:android="http://schemas.android.com/apk/res/android"
        xmlns:tools="http://schemas.android.com/tools"
        android:layout_width="match_parent"
        android:layout_height="wrap_content"
        android:background="@drawable/gradient"
        tools:context="com.example.leon.login.OrderRequestAdd">

        <android.support.v7.widget.Toolbar
            android:id="@+id/toolbar"
            android:layout_width="match_parent"
            android:layout_height="?attr/actionBarSize"
            android:background="#1F2D44"
            android:elevation="4dp"
            app:title="Item List"
            app:titleTextColor="@color/colorPrimary">

            <net.steamcrafted.materialiconlib.MaterialIconView
                android:id="@+id/info"
                android:layout_marginEnd="10dp"
                android:layout_width="wrap_content"
                android:layout_height="match_parent"
                android:padding="10dp"
                android:layout_gravity="right"
                app:materialIcon="information"
                app:materialIconColor="@color/colorPrimary"
                app:materialIconSize="25dp"
                />

        </android.support.v7.widget.Toolbar>



        <RelativeLayout
            android:layout_width="match_parent"
            android:layout_height="wrap_content"
            android:layout_below="@+id/toolbar"
            android:layout_marginTop="40dp">


            <EditText
                android:id="@+id/txtInput"
                android:layout_marginStart="5dp"
                android:layout_width="260dp"
                android:layout_height="wrap_content"
                android:layout_alignBottom="@+id/buttonAdd"
                android:inputType="text" />

            <Button
                android:id="@+id/buttonAdd"
                android:layout_width="115dp"
                android:layout_height="wrap_content"
                android:layout_toRightOf="@+id/txtInput"
                android:text="Add" />

            <ListView
                android:id="@+id/list"
                android:layout_width="match_parent"
                android:layout_height="wrap_content"
                android:layout_alignParentStart="true"
                android:layout_below="@+id/buttonAdd"
                android:smoothScrollbar="true">

            </ListView>
        </RelativeLayout>

        <Button
            android:id="@+id/buttonSubmit"
            android:layout_width="match_parent"
            android:layout_height="wrap_content"
            android:layout_alignParentBottom="true"
            android:background="@drawable/shape"
            android:text="Submit" />
    </RelativeLayout>
</ScrollView>